/batch
/config,noeldb,1     ! force off writing results to database
*get,_wallstrt,active,,time,wall
! ANSYS input file written by Workbench version 19.2 RELEASE
! File used for geometry attach: C:\Users\DELL\Downloads\CodeAlphaInternship\Structural Analys wing_files\dp0\SYS\DM\SYS.scdoc
/title,Structural Analys wing--Structure statique (A5)
*DIM,_wb_ProjectScratch_dir,string,248
_wb_ProjectScratch_dir(1) = 'C:\Users\DELL\Downloads\CodeAlphaInternship\_ProjectScratch\Scr9C3D\'
*DIM,_wb_SolverFiles_dir,string,248
_wb_SolverFiles_dir(1) = 'C:\Users\DELL\Downloads\CodeAlphaInternship\Structural Analys wing_files\dp0\SYS\MECH\'
*DIM,_wb_userfiles_dir,string,248
_wb_userfiles_dir(1) = 'C:\Users\DELL\Downloads\CodeAlphaInternship\Structural Analys wing_files\user_files\'
/com,--- Data in consistent NMM units. See Solving Units in the help system for more information.
/units,MPA
/nopr
/wb,file,start              !  signify a WB generated input file
/prep7
! Turn off shape checking because checks already performed inside WB mesher.
! See help system for more information.
SHPP,OFF,,NOWARN
/nolist
etcon,set             ! allow ANSYS to choose best KEYOP's for 180x elements
/com,*********** Nodes for the whole assembly ***********
nblock,3,,1337
(1i9,3e20.9e3)
        1     7.846535777E+02     4.685187498E+02     2.834475631E+01
        2     7.843118437E+02     4.666583700E+02     2.845032136E+01
        3     7.567510569E+02     4.416826991E+02     4.090876400E-01
        4     7.563143276E+02     4.388227448E+02     8.294523905E-01
        5     7.170990346E+02     4.219324557E+02     7.881319269E-01
        6     7.170223604E+02     4.180964069E+02     1.630433776E+00
        7     6.771889967E+02     4.023056032E+02     9.930482705E-01
        8     6.772711316E+02     3.974591073E+02     2.094528364E+00
        9     6.372621744E+02     3.824504669E+02     1.158343459E+00
       10     6.373658635E+02     3.766740766E+02     2.491378644E+00
       11     5.973661186E+02     3.624995780E+02     1.304700750E+00
       12     5.974825888E+02     3.558281983E+02     2.862181149E+00
       13     5.574926758E+02     3.424984914E+02     1.436735531E+00
       14     5.576153717E+02     3.349514393E+02     3.216912967E+00
       15     5.176268037E+02     3.224828375E+02     1.558138190E+00
       16     5.177535451E+02     3.140670572E+02     3.563029176E+00
       17     4.777614031E+02     3.024724953E+02     1.670747054E+00
       18     4.778920401E+02     2.931878190E+02     3.904827543E+00
       19     4.378923476E+02     2.824784029E+02     1.775523738E+00
       20     4.380279521E+02     2.723212479E+02     4.244566188E+00
! ... 1197 like lines cut
/wb,elem,start            !  set before creation of elements
/com,*********** Elements for Body 1 "SYS\Corps principal" ***********
et,1,186
keyo,1,2,1          ! set full integration on SOLID186
eblock,19,solid,,189
(19i9)
        1        1        1        1        0        0        0        0       20        0        1        1      336      335      326       42      348      349      342
      357     1192     1171      356      520     1213     1207      518      355     1195     1193     1172
        1        1        1        1        0        0        0        0       20        0        2        1      326      335      336        3      150      321      322
      356     1171     1192      357      365      833     1160      366      354      834     1161     1163
        1        1        1        1        0        0        0        0       20        0        3        3      150      321      322        5      145      195      194
      365      833     1160      366      373      819      926      375      364      818      931      928
        1        1        1        1        0        0        0        0       20        0        4        5      145      195      194        7      140      202      201
      373      819      926      375      381      804      944      383      372      803      930      927
        1        1        1        1        0        0        0        0       20        0        5        7      140      202      201        9      135      209      208
      381      804      944      383      389      789      957      391      380      788      947      945
        1        1        1        1        0        0        0        0       20        0        6        9      135      209      208       11      130      216      215
      389      789      957      391      397      774      970      399      388      773      960      958
        1        1        1        1        0        0        0        0       20        0        7       11      130      216      215       13      125      223      222
      397      774      970      399      405      759      983      407      396      758      973      971
        1        1        1        1        0        0        0        0       20        0        8       13      125      223      222       15      120      230      229
      405      759      983      407      413      744      996      415      404      743      986      984
        1        1        1        1        0        0        0        0       20        0        9       15      120      230      229       17      115      237      236
      413      744      996      415      421      729     1009      423      412      728      999      997
        1        1        1        1        0        0        0        0       20        0       10       17      115      237      236       19      110      244      243
      421      729     1009      423      429      714     1022      431      420      713     1012     1010
! ... 359 like lines cut
!Material Id = {C412171E-2450-4681-9C27-1A7425D645E2}
/wb,elem,end               !  done creating elements
/com,*********** Send User Defined Coordinate System(s) ***********
csys,0
toffst,273.15,  ! Temperature offset from absolute zero
/com,*********** Set Reference Temperature ***********
tref,22.
/wb,mat,start              !  starting to send materials
/com,*********** Send Materials ***********
Temperature = 'TEMP' ! Temperature
MP,DENS,1,4.62e-09,	! tonne mm^-3
MP,ALPX,1,9.4e-06,	! C^-1
MP,C,1,522000000,	! mm^2 s^-2 C^-1
MP,KXX,1,21.9,	! tonne mm s^-3 C^-1
MP,RSVX,1,0.0017,	! ohm mm
MP,EX,1,96000,	! tonne s^-2 mm^-1
MP,NUXY,1,0.36,
MP,MURX,1,1,

/wb,mat,end                !  done sending materials
!************************* Model Summary ********************
!SYS\Corps principal,	Alliage de titane,	matid,	1
!************************* End Model Summary ********************
! get the diagonal of the bounding box. Needed later for other things
*get,_xmin,node,,mnloc,x
*get,_ymin,node,,mnloc,y
*get,_zmin,node,,mnloc,z
*get,_xmax,node,,mxloc,x
*get,_ymax,node,,mxloc,y
*get,_zmax,node,,mxloc,z
_ASMDIAG=(_xmax-_xmin)*(_xmax-_xmin)+(_ymax-_ymin)*(_ymax-_ymin)+(_zmax-_zmin)*(_zmax-_zmin)
_ASMDIAG=SQRT(_ASMDIAG)
/wb,contact,start          !  starting to send contact
/wb,contact,end            !  done creating contacts
/golist
/wb,load,start             !  starting to send loads
/com,*********** Fixed Supports ***********
CMBLOCK,_FIXEDSU,NODE,       40
(8i10)
        43        44        45        46        47        48        49        50
        51        52        53        54        55        56        57        58
       521       522       523       524       525       526       527       528
       529       531       532       534       535       537       538       540
       542       544       546       548       550       552       554       556

cmsel,s,_FIXEDSU
d,all,all
nsel,all
/com,*********** Define Pressure Using Surface Effect Elements ***********
et,2,154
eblock,10,,,152
(15i9)
      190        2        2        2        0      174      192      324      173      886      922      883      882
      191        2        2        2        0      175      199      192      174      888      921      886      885
      192        2        2        2        0      176      206      199      175      890      941      888      887
      193        2        2        2        0      177      213      206      176      892      954      890      889
      194        2        2        2        0      178      220      213      177      894      967      892      891
      195        2        2        2        0      179      227      220      178      896      980      894      893
      196        2        2        2        0      180      234      227      179      898      993      896      895
      197        2        2        2        0      181      241      234      180      900     1006      898      897
      198        2        2        2        0      182      248      241      181      902     1019      900      899
      199        2        2        2        0      183      255      248      182      904     1032      902      901
      200        2        2        2        0      184      262      255      183      906     1045      904      903
      201        2        2        2        0      185      269      262      184      908     1058      906      905
      202        2        2        2        0      186      276      269      185      910     1071      908      907
      203        2        2        2        0      187      283      276      186      912     1084      910      909
      204        2        2        2        0      188      290      283      187      914     1097      912      911
      205        2        2        2        0      189      297      290      188      916     1110      914      913
      206        2        2        2        0      190      304      297      189      918     1123      916      915
      207        2        2        2        0      191      311      304      190      919     1136      918      917
      208        2        2        2        0       52       51      311      191      544      545      919      547
      209        2        2        2        0      192      193      323      324      920      925     1164      922
! ... 133 like lines cut
esel,s,type,,2
esel,all
esel,all
/gst,on,on
fini
*get,_numnode,node,0,count
*get,_numelem,elem,0,count
*get, _MAXELEMNUM, elem, 0, NUM, MAX
*get, _MAXNODENUM, node, 0, NUM, MAX
*get, _MAXELEMTYPE, etyp, 0, NUM, MAX
*get, _MAXREALCONST, real, 0, NUM, MAX
/go
/wb,load,end               !  done creating loads
/com,--- Number of total nodes = %_numnode%
/com,--- Number of contact elements = 152
/com,--- Number of spring elements = 0
/com,--- Number of bearing elements = 0
/com,--- Number of solid elements = 189
/com,--- Number of condensed parts = 0
/com,--- Number of total elements = %_numelem%
*get,_wallbsol,active,,time,wall
/com,****************************************************************************
/com,*************************    SOLUTION       ********************************
/com,****************************************************************************
/solu
antype,0                   ! static analysis
eqsl,sparse,,,,,1
cntr,print,1               ! print out contact info and also make no initial contact an error
dmpoption,emat,no             ! Don't combine emat file for DANSYS
dmpoption,esav,no             ! Don't combine esav file for DANSYS
nldiag,cont,iter           ! print out contact info each equilibrium iteration
rescontrol,,none                 ! Do not keep any restart files
/com,****************************************************
/com,******************* SOLVE FOR LS 1 OF 1 ****************
esel,s,type,,2
nsle
sf,all,pres,1.e-003
nsel,all
esel,all
esel,all
/nopr
/gopr
nsub,1,1,1
time,1.
outres,erase
outres,all,none
outres,nsol,all,
outres,rsol,all
outres,strs,all,
outres,epel,all,
outres,eppl,all,
stabilize,off                   ! Stabilization turned OFF by user
! *********** WB SOLVE COMMAND ***********
! check interactive state
*get,ANSINTER_,active,,int
*if,ANSINTER_,ne,0,then
/eof
*endif
solve
/com *************** Write FE CONNECTORS ********* 
CEWRITE,file,ce,,INTE
/com,****************************************************
/com,*************** FINISHED SOLVE FOR LS 1 *************
*get,_wallasol,active,,time,wall
/nopr
*get,_numnode,node,0,count
*get,_numelem,elem,0,count
*get, _MAXELEMNUM, elem, 0, NUM, MAX
*get, _MAXNODENUM, node, 0, NUM, MAX,,,INTERNAL
*get, _MAXELEMTYPE, etyp, 0, NUM, MAX
*get, _MAXREALCONST, real, 0, NUM, MAX
/gopr
/post1
xmlo,ENCODING,ISO-8859-1
xmlo,parm
/xml,parm,xml
fini
/gopr
*get,_walldone,active,,time,wall
_preptime=(_wallbsol-_wallstrt)*3600
_solvtime=(_wallasol-_wallbsol)*3600
_posttime=(_walldone-_wallasol)*3600
_totaltim=(_walldone-_wallstrt)*3600
/wb,file,end               ! done with WB generated input
