
 ANSYS Mechanical Enterprise                       


 *------------------------------------------------------------------*
 |                                                                  |
 |   W E L C O M E   T O   T H E   A N S Y S (R)  P R O G R A M     |
 |                                                                  |
 *------------------------------------------------------------------*




 ***************************************************************
 *            ANSYS Release 19.2     LEGAL NOTICES             *
 ***************************************************************
 *                                                             *
 * Copyright 1971-2018 ANSYS, Inc.  All rights reserved.       *
 * Unauthorized use, distribution or duplication is            *
 * prohibited.                                                 *
 *                                                             *
 * Ansys is a registered trademark of ANSYS, Inc. or its       *
 * subsidiaries in the United States or other countries.       *
 * See the ANSYS, Inc. online documentation or the ANSYS, Inc. *
 * documentation CD or online help for the complete Legal      *
 * Notice.                                                     *
 *                                                             *
 ***************************************************************
 *                                                             *
 * THIS ANSYS SOFTWARE PRODUCT AND PROGRAM DOCUMENTATION       *
 * INCLUDE TRADE SECRETS AND CONFIDENTIAL AND PROPRIETARY      *
 * PRODUCTS OF ANSYS, INC., ITS SUBSIDIARIES, OR LICENSORS.    *
 * The software products and documentation are furnished by    *
 * ANSYS, Inc. or its subsidiaries under a software license    *
 * agreement that contains provisions concerning               *
 * non-disclosure, copying, length and nature of use,          *
 * compliance with exporting laws, warranties, disclaimers,    *
 * limitations of liability, and remedies, and other           *
 * provisions.  The software products and documentation may be *
 * used, disclosed, transferred, or copied only in accordance  *
 * with the terms and conditions of that software license      *
 * agreement.                                                  *
 *                                                             *
 * ANSYS, Inc. is a UL registered                              *
 * ISO 9001:2008 company.                                      *
 *                                                             *
 ***************************************************************
 *                                                             *
 * This product is subject to U.S. laws governing export and   *
 * re-export.                                                  *
 *                                                             *
 * For U.S. Government users, except as specifically granted   *
 * by the ANSYS, Inc. software license agreement, the use,     *
 * duplication, or disclosure by the United States Government  *
 * is subject to restrictions stated in the ANSYS, Inc.        *
 * software license agreement and FAR 12.212 (for non-DOD      *
 * licenses).                                                  *
 *                                                             *
 ***************************************************************

 Release 19.2
     
 Point Releases and Patches installed:   
     
 ANSYS, Inc. Products Release 19.2   
 SpaceClaim Release 19.2 
 AIM Release 19.2
 Autodyn Release 19.2
 LS-DYNA Release 19.2
 CFD-Post only Release 19.2  
 CFX (includes CFD-Post) Release 19.2
 Chemkin Release 19.2
 EnSight Release 19.2
 FENSAP-ICE Release 19.2 
 Fluent (includes CFD-Post) Release 19.2 
 Forte Release 19.2  
 Polyflow (includes CFD-Post) Release 19.2   
 TurboGrid Release 19.2  
 ICEM CFD Release 19.2   
 Aqwa Release 19.2   
 Customization Files for User Programmable Features Release 19.2 
 Mechanical Products Release 19.2
 Icepak (includes CFD-Post) Release 19.2 
 Remote Solve Manager Standalone Services Release 19.2   
 Viewer Release 19.2 
 ACIS Geometry Interface Release 19.2
 AutoCAD Geometry Interface Release 19.2 
 Catia, Version 4 Geometry Interface Release 19.2
 Catia, Version 5 Geometry Interface Release 19.2
 Catia, Version 6 Geometry Interface Release 19.2
 Creo Elements/Direct Modeling Geometry Interface Release 19.2   
 Creo Parametric Geometry Interface Release 19.2 
 Inventor Geometry Interface Release 19.2
 JTOpen Geometry Interface Release 19.2  
 NX Geometry Interface Release 19.2  
 Parasolid Geometry Interface  Release 19.2  
 Solid Edge Geometry Interface Release 19.2  
 SOLIDWORKS Geometry Interface Release 19.2  
 ANSYS, Inc. License Manager Release 19.2


          *****  ANSYS COMMAND LINE ARGUMENTS  *****
  BATCH MODE REQUESTED (-b)    = NOLIST
  INPUT FILE COPY MODE (-c)    = COPY
  DISTRIBUTED MEMORY PARALLEL REQUESTED
       2 PARALLEL PROCESSES REQUESTED WITH SINGLE THREAD PER PROCESS
    TOTAL OF     2 CORES REQUESTED
  MPI OPTION                   = INTELMPI
  INPUT FILE NAME              = C:\Users\DELL\Downloads\CodeAlphaInternship\_ProjectScratch\Scr9C3D\dummy.dat
  OUTPUT FILE NAME             = C:\Users\DELL\Downloads\CodeAlphaInternship\_ProjectScratch\Scr9C3D\solve.out
  START-UP FILE MODE           = NOREAD
  STOP FILE MODE               = NOREAD

 RELEASE= Release 19.2         BUILD= 19.2      UP20180808   VERSION=WINDOWS x64 
 CURRENT JOBNAME=file0  22:20:36  FEB 21, 2026 CP=      0.234


 PARAMETER _DS_PROGRESS =     999.0000000    

 /INPUT FILE= ds.dat  LINE=       0



 *** NOTE ***                            CP =       0.422   TIME= 22:20:36
 The /CONFIG,NOELDB command is not valid in a Distributed ANSYS          
 solution.  Command is ignored.                                          

 *GET  _WALLSTRT  FROM  ACTI  ITEM=TIME WALL  VALUE=  22.3433333    

 TITLE= 
 Structural Analys wing--Structure statique (A5)                               


 SET PARAMETER DIMENSIONS ON  _WB_PROJECTSCRATCH_DIR
  TYPE=STRI  DIMENSIONS=      248        1        1

 PARAMETER _WB_PROJECTSCRATCH_DIR(1) = C:\Users\DELL\Downloads\CodeAlphaInternship\_ProjectScratch\Scr9C3D\

 SET PARAMETER DIMENSIONS ON  _WB_SOLVERFILES_DIR
  TYPE=STRI  DIMENSIONS=      248        1        1

 PARAMETER _WB_SOLVERFILES_DIR(1) = C:\Users\DELL\Downloads\CodeAlphaInternship\Structural Analys wing_files\dp0\SYS\MECH\

 SET PARAMETER DIMENSIONS ON  _WB_USERFILES_DIR
  TYPE=STRI  DIMENSIONS=      248        1        1

 PARAMETER _WB_USERFILES_DIR(1) = C:\Users\DELL\Downloads\CodeAlphaInternship\Structural Analys wing_files\user_files\
 --- Data in consistent NMM units. See Solving Units in the help system for more

 MPA UNITS SPECIFIED FOR INTERNAL    
  LENGTH      = MILLIMETERS (mm)
  MASS        = TONNE (Mg)
  TIME        = SECONDS (sec)
  TEMPERATURE = CELSIUS (C)
  TOFFSET     = 273.0
  FORCE       = NEWTON (N)
  HEAT        = MILLIJOULES (mJ)

 INPUT  UNITS ARE ALSO SET TO MPA 

 *** ANSYS - ENGINEERING ANALYSIS SYSTEM  RELEASE Release 19.2     19.2     ***
 DISTRIBUTED ANSYS Mechanical Enterprise                       

 00000000  VERSION=WINDOWS x64   22:20:36  FEB 21, 2026 CP=      0.422

 Structural Analys wing--Structure statique (A5)                               



          ***** ANSYS ANALYSIS DEFINITION (PREP7) *****
 *********** Nodes for the whole assembly ***********
 *********** Elements for Body 1 "SYS\Corps principal" ***********
 *********** Send User Defined Coordinate System(s) ***********
 *********** Set Reference Temperature ***********
 *********** Send Materials ***********
 *********** Fixed Supports ***********
 *********** Define Pressure Using Surface Effect Elements ***********


 ***** ROUTINE COMPLETED *****  CP =         0.516


 --- Number of total nodes = 1216
 --- Number of contact elements = 152
 --- Number of spring elements = 0
 --- Number of bearing elements = 0
 --- Number of solid elements = 189
 --- Number of condensed parts = 0
 --- Number of total elements = 341

 *GET  _WALLBSOL  FROM  ACTI  ITEM=TIME WALL  VALUE=  22.3433333    
 ****************************************************************************
 *************************    SOLUTION       ********************************
 ****************************************************************************

 *****  ANSYS SOLUTION ROUTINE  *****


 PERFORM A STATIC ANALYSIS
  THIS WILL BE A NEW ANALYSIS

 USE SPARSE MATRIX DIRECT SOLVER

 CONTACT INFORMATION PRINTOUT LEVEL       1

 DO NOT COMBINE ELEMENT MATRIX FILES (.emat) AFTER DISTRIBUTED PARALLEL SOLUTION

 DO NOT COMBINE ELEMENT SAVE DATA FILES (.esav) AFTER DISTRIBUTED PARALLEL SOLUTION

 NLDIAG: Nonlinear diagnostics CONT option is set to ON. 
         Writing frequency : each ITERATION.

 DO NOT SAVE ANY RESTART FILES AT ALL
 ****************************************************
 ******************* SOLVE FOR LS 1 OF 1 ****************

 SELECT       FOR ITEM=TYPE COMPONENT=    
  IN RANGE         2 TO          2 STEP          1

        152  ELEMENTS (OF        341  DEFINED) SELECTED BY  ESEL  COMMAND.

 SELECT      ALL NODES HAVING ANY ELEMENT IN ELEMENT SET.

        511 NODES (OF       1216  DEFINED) SELECTED FROM
      152 SELECTED ELEMENTS BY NSLE COMMAND.

 GENERATE SURFACE LOAD PRES ON SURFACE DEFINED BY ALL SELECTED NODES
 VALUES= 1.000000000E-03  0.00000000    

 NUMBER OF PRES ELEMENT FACE LOADS STORED =        152

 ALL SELECT   FOR ITEM=NODE COMPONENT=    
  IN RANGE         1 TO       1216 STEP          1

       1216  NODES (OF       1216  DEFINED) SELECTED BY NSEL  COMMAND.

 ALL SELECT   FOR ITEM=ELEM COMPONENT=    
  IN RANGE         1 TO        341 STEP          1

        341  ELEMENTS (OF        341  DEFINED) SELECTED BY  ESEL  COMMAND.

 ALL SELECT   FOR ITEM=ELEM COMPONENT=    
  IN RANGE         1 TO        341 STEP          1

        341  ELEMENTS (OF        341  DEFINED) SELECTED BY  ESEL  COMMAND.

 PRINTOUT RESUMED BY /GOP

 USE       1 SUBSTEPS INITIALLY THIS LOAD STEP FOR ALL  DEGREES OF FREEDOM
 FOR AUTOMATIC TIME STEPPING:
   USE      1 SUBSTEPS AS A MAXIMUM
   USE      1 SUBSTEPS AS A MINIMUM

 TIME=  1.0000    

 ERASE THE CURRENT DATABASE OUTPUT CONTROL TABLE.


 WRITE ALL  ITEMS TO THE DATABASE WITH A FREQUENCY OF NONE
   FOR ALL APPLICABLE ENTITIES

 WRITE NSOL ITEMS TO THE DATABASE WITH A FREQUENCY OF ALL 
   FOR ALL APPLICABLE ENTITIES

 WRITE RSOL ITEMS TO THE DATABASE WITH A FREQUENCY OF ALL 
   FOR ALL APPLICABLE ENTITIES

 WRITE STRS ITEMS TO THE DATABASE WITH A FREQUENCY OF ALL 
   FOR ALL APPLICABLE ENTITIES

 WRITE EPEL ITEMS TO THE DATABASE WITH A FREQUENCY OF ALL 
   FOR ALL APPLICABLE ENTITIES

 WRITE EPPL ITEMS TO THE DATABASE WITH A FREQUENCY OF ALL 
   FOR ALL APPLICABLE ENTITIES

 NONLINEAR STABILIZATION CONTROL:
 KEY=OFF 


 *GET  ANSINTER_  FROM  ACTI  ITEM=INT        VALUE=  0.00000000    

 *IF  ANSINTER_                         ( =   0.00000     )  NE  
      0                                 ( =   0.00000     )  THEN    

 *ENDIF

 *** NOTE ***                            CP =       0.578   TIME= 22:20:36
 The automatic domain decomposition logic has selected the MESH domain   
 decomposition method with 2 processes per solution.                     

 *****  ANSYS SOLVE    COMMAND  *****

 *** WARNING ***                         CP =       0.578   TIME= 22:20:36
 Element shape checking is currently inactive.  Issue SHPP,ON or         
 SHPP,WARN to reactivate, if desired.                                    

 *** NOTE ***                            CP =       0.609   TIME= 22:20:36
 The model data was checked and warning messages were found.             
  Please review output or errors file (                                  
 C:\Users\DELL\Downloads\CodeAlphaInternship\_ProjectScratch\Scr9C3D\fil 
 le0.err ) for these warning messages.                                   

 *** SELECTION OF ELEMENT TECHNOLOGIES FOR APPLICABLE ELEMENTS ***
      --- GIVE SUGGESTIONS AND RESET THE KEY OPTIONS ---

 ELEMENT TYPE    1 IS SOLID186. KEYOPT(2)=0 IS SUGGESTED AND HAS BEEN RESET.
  KEYOPT(1-12)=    0    0    0    0    0    0    0    0    0    0    0    0



 *** ANSYS - ENGINEERING ANALYSIS SYSTEM  RELEASE Release 19.2     19.2     ***
 DISTRIBUTED ANSYS Mechanical Enterprise                       

 00000000  VERSION=WINDOWS x64   22:20:36  FEB 21, 2026 CP=      0.625

 Structural Analys wing--Structure statique (A5)                               



                       S O L U T I O N   O P T I O N S

   PROBLEM DIMENSIONALITY. . . . . . . . . . . . .3-D                  
   DEGREES OF FREEDOM. . . . . . UX   UY   UZ  
   ANALYSIS TYPE . . . . . . . . . . . . . . . . .STATIC (STEADY-STATE)
   OFFSET TEMPERATURE FROM ABSOLUTE ZERO . . . . .  273.15    
   EQUATION SOLVER OPTION. . . . . . . . . . . . .SPARSE             
   GLOBALLY ASSEMBLED MATRIX . . . . . . . . . . .SYMMETRIC  

 *** WARNING ***                         CP =       0.625   TIME= 22:20:36
 Material number 2 (used by element 190) should normally have at least   
 one MP or one TB type command associated with it.  Output of energy by  
 material may not be available.                                          

 *** NOTE ***                            CP =       0.625   TIME= 22:20:36
 The step data was checked and warning messages were found.              
  Please review output or errors file (                                  
 C:\Users\DELL\Downloads\CodeAlphaInternship\_ProjectScratch\Scr9C3D\fil 
 le0.err ) for these warning messages.                                   

 *** NOTE ***                            CP =       0.625   TIME= 22:20:36
 The conditions for direct assembly have been met.  No .emat or .erot    
 files will be produced.                                                 

  
  
     D I S T R I B U T E D   D O M A I N   D E C O M P O S E R
  
  ...Number of elements: 341
  ...Number of nodes:    1216
  ...Decompose to 2 CPU domains
  ...Element load balance ratio =     1.047


                      L O A D   S T E P   O P T I O N S

   LOAD STEP NUMBER. . . . . . . . . . . . . . . .     1
   TIME AT END OF THE LOAD STEP. . . . . . . . . .  1.0000    
   NUMBER OF SUBSTEPS. . . . . . . . . . . . . . .     1
   STEP CHANGE BOUNDARY CONDITIONS . . . . . . . .    NO
   PRINT OUTPUT CONTROLS . . . . . . . . . . . . .NO PRINTOUT
   DATABASE OUTPUT CONTROLS
      ITEM     FREQUENCY   COMPONENT
       ALL       NONE               
      NSOL        ALL               
      RSOL        ALL               
      STRS        ALL               
      EPEL        ALL               
      EPPL        ALL               


 SOLUTION MONITORING INFO IS WRITTEN TO FILE= file.mntr                                                                                                                                                                                                                                                           



                         ***********  PRECISE MASS SUMMARY  ***********

   TOTAL RIGID BODY MASS MATRIX ABOUT ORIGIN
               Translational mass               |   Coupled translational/rotational mass
        0.65593E-02    0.0000        0.0000     |     0.0000       0.29897E-01   -1.2718    
         0.0000       0.65593E-02    0.0000     |   -0.29897E-01    0.0000        1.4881    
         0.0000        0.0000       0.65593E-02 |     1.2718       -1.4881        0.0000    
     ------------------------------------------ | ------------------------------------------
                                                |         Rotational mass (inertia)
                                                |     300.28       -381.32       -5.6519    
                                                |    -381.32        531.57       -5.2880    
                                                |    -5.6519       -5.2880        831.00    

   TOTAL MASS = 0.65593E-02
     The mass principal axes coincide with the global Cartesian axes

   CENTER OF MASS (X,Y,Z)=    226.86        193.90        4.5580    

   TOTAL INERTIA ABOUT CENTER OF MASS
         53.540       -92.782        1.1306    
        -92.782        193.84       0.50896    
         1.1306       0.50896        246.81    

   PRINCIPAL INERTIAS =    7.3682        240.01        246.82    
   ORIENTATION VECTORS OF THE INERTIA PRINCIPAL AXES IN GLOBAL CARTESIAN
     ( 0.895, 0.445,-0.005) (-0.445, 0.895, 0.007) ( 0.008,-0.004, 1.000) 


  *** MASS SUMMARY BY ELEMENT TYPE ***

  TYPE      MASS
     1  0.655925E-02

 Range of element maximum matrix coefficients in global coordinates
 Maximum = 37739466.8 at element 86.                                     
 Minimum = 5251914.81 at element 109.                                    

   *** ELEMENT MATRIX FORMULATION TIMES
     TYPE    NUMBER   ENAME      TOTAL CP  AVE CP

        1       189  SOLID186      0.062   0.000331
        2       152  SURF154       0.016   0.000103
 Time at end of element matrix formulation CP = 0.828125.                

 DISTRIBUTED SPARSE MATRIX DIRECT SOLVER.
  Number of equations =        3528,    Maximum wavefront =    138

  Local memory allocated for solver              =      6.830 MB
  Local memory required for in-core solution     =      6.585 MB
  Local memory required for out-of-core solution =      4.285 MB

  Total memory allocated for solver              =     13.650 MB
  Total memory required for in-core solution     =     13.163 MB
  Total memory required for out-of-core solution =      8.629 MB

 *** NOTE ***                            CP =       0.891   TIME= 22:20:37
 The Distributed Sparse Matrix Solver is currently running in the        
 in-core memory mode.  This memory mode uses the most amount of memory   
 in order to avoid using the hard drive as much as possible, which most  
 often results in the fastest solution time.  This mode is recommended   
 if enough physical memory is present to accommodate all of the solver   
 data.                                                                   
 curEqn=   1734  totEqn=   1734 Job CP sec=      0.938
      Factor Done= 100% Factor Wall sec=      0.049 rate=    1382.6 Mflops
 Distributed sparse solver maximum pivot= 20603363.6 at node 1164 UZ.    
 Distributed sparse solver minimum pivot= 236.847639 at node 1207 UX.    
 Distributed sparse solver minimum pivot in absolute value= 236.847639   
 at node 1207 UX.                                                        

   *** ELEMENT RESULT CALCULATION TIMES
     TYPE    NUMBER   ENAME      TOTAL CP  AVE CP

        1       189  SOLID186      0.031   0.000165
        2       152  SURF154       0.000   0.000000

   *** NODAL LOAD CALCULATION TIMES
     TYPE    NUMBER   ENAME      TOTAL CP  AVE CP

        1       189  SOLID186      0.000   0.000000
        2       152  SURF154       0.000   0.000000
 *** LOAD STEP     1   SUBSTEP     1  COMPLETED.    CUM ITER =      1
 *** TIME =   1.00000         TIME INC =   1.00000      NEW TRIANG MATRIX


 *** ANSYS BINARY FILE STATISTICS
  BUFFER SIZE USED= 16384
        1.312 MB WRITTEN ON ASSEMBLED MATRIX FILE: file0.full
        0.500 MB WRITTEN ON RESULTS FILE: file0.rst
 *************** Write FE CONNECTORS *********

 WRITE OUT CONSTRAINT EQUATIONS TO FILE= file.ce                                                                                                                                                                                                                                                             
 ****************************************************
 *************** FINISHED SOLVE FOR LS 1 *************

 *GET  _WALLASOL  FROM  ACTI  ITEM=TIME WALL  VALUE=  22.3436111    

 PRINTOUT RESUMED BY /GOP

 FINISH SOLUTION PROCESSING


 ***** ROUTINE COMPLETED *****  CP =         1.016



 *** ANSYS - ENGINEERING ANALYSIS SYSTEM  RELEASE Release 19.2     19.2     ***
 DISTRIBUTED ANSYS Mechanical Enterprise                       

 00000000  VERSION=WINDOWS x64   22:20:37  FEB 21, 2026 CP=      1.031

 Structural Analys wing--Structure statique (A5)                               



          ***** ANSYS RESULTS INTERPRETATION (POST1) *****

 *** NOTE ***                            CP =       1.031   TIME= 22:20:37
 Reading results into the database (SET command) will update the current 
 displacement and force boundary conditions in the database with the     
 values from the results file for that load set.  Note that any          
 subsequent solutions will use these values unless action is taken to    
 either SAVE the current values or not overwrite them (/EXIT,NOSAVE).    

 Set Encoding of XML File to:ISO-8859-1

 Set Output of XML File to:
     PARM,     ,     ,     ,     ,     ,     ,     ,     ,     ,     ,     ,
         ,     ,     ,     ,     ,     ,     ,

 DATABASE WRITTEN ON FILE  parm.xml                                                                                                                                                                                                                                                            

 EXIT THE ANSYS POST1 DATABASE PROCESSOR


 ***** ROUTINE COMPLETED *****  CP =         1.031



 PRINTOUT RESUMED BY /GOP

 *GET  _WALLDONE  FROM  ACTI  ITEM=TIME WALL  VALUE=  22.3436111    

 PARAMETER _PREPTIME =     0.000000000    

 PARAMETER _SOLVTIME =     1.000000000    

 PARAMETER _POSTTIME =     0.000000000    

 PARAMETER _TOTALTIM =     1.000000000    

 EXIT ANSYS WITHOUT SAVING DATABASE


 NUMBER OF WARNING MESSAGES ENCOUNTERED=          2
 NUMBER OF ERROR   MESSAGES ENCOUNTERED=          0

+--------- D I S T R I B U T E D   A N S Y S   S T A T I S T I C S ------------+

Release: Release 19.2       Build: 19.2       Update: UP20180808   Platform: WINDOWS x64 
Date Run: 02/21/2026   Time: 22:20     Process ID: 1148
Operating System: Windows 8  (Build: 9200)

Processor Model: Intel(R) Core(TM) i5-6300U CPU @ 2.40GHz

Compiler: Intel(R) FORTRAN Compiler Version 17.0.4  (Build: 20170411)
          Intel(R) C/C++ Compiler Version 17.0.4  (Build: 20170411)
          Intel(R) Math Kernel Library Version 2017.0.3 Product Build 20170413

Number of machines requested            :    1
Total number of cores available         :    4
Number of physical cores available      :    2
Number of processes requested           :    2
Number of threads per process requested :    1
Total number of cores requested         :    2 (Distributed Memory Parallel)               
MPI Type: INTELMPI
MPI Version: Intel(R) MPI Library 2017 Update 3 for Windows* OS


GPU Acceleration: Not Requested

Job Name: file0
Input File: dummy.dat

  Core                Machine Name   Working Directory
 -----------------------------------------------------
     0             DESKTOP-P17VM8N   C:\Users\DELL\Downloads\CodeAlphaInternship\_ProjectScratch\Scr9C3D
     1             DESKTOP-P17VM8N   C:\Users\DELL\Downloads\CodeAlphaInternship\_ProjectScratch\Scr9C3D
 
Latency time from master to core     1 =    3.894 microseconds
 
Communication speed from master to core     1 =  2325.16 MB/sec

Total CPU time for main thread                    :        0.9 seconds
Total CPU time summed for all threads             :        1.1 seconds

Elapsed time spent pre-processing model (/PREP7)  :        0.1 seconds
Elapsed time spent solution - preprocessing       :        0.1 seconds
Elapsed time spent computing solution             :        0.6 seconds
Elapsed time spent solution - postprocessing      :        0.0 seconds
Elapsed time spent post-processing model (/POST1) :        0.0 seconds
 
Equation solver used                              :            Sparse (symmetric)
Equation solver computational rate                :        0.5 Gflops

Maximum total memory used                         :       87.0 MB
Maximum total memory allocated                    :     3136.0 MB
Total physical memory available                   :          8 GB

Total amount of I/O written to disk               :        0.0 GB
Total amount of I/O read from disk                :        0.0 GB

+------ E N D   D I S T R I B U T E D   A N S Y S   S T A T I S T I C S -------+


 *---------------------------------------------------------------------------*
 |                                                                           |
 |                       DISTRIBUTED ANSYS RUN COMPLETED                     |
 |                                                                           |
 |---------------------------------------------------------------------------|
 |                                                                           |
 | Ansys Release 19.2          Build 19.2         UP20180808     WINDOWS x64 |
 |                                                                           |
 |---------------------------------------------------------------------------|
 |                                                                           |
 | Database Requested(-db)  1024 MB    Scratch Memory Requested      1024 MB |
 | Maximum Database Used       1 MB    Maximum Scratch Memory Used     43 MB |
 |                                                                           |
 |---------------------------------------------------------------------------|
 |                                                                           |
 |        CP Time      (sec) =          1.109       Time  =  22:20:37        |
 |        Elapsed Time (sec) =          3.000       Date  =  02/21/2026      |
 |                                                                           |
 *---------------------------------------------------------------------------*
